FoamFile
{
    format ascii;
    class dictionary;
    object controlDict;
}
application simpleFoam;
startFrom startTime;
startTime 0;
stopAt endTime;
endTime 0;
deltaT 1;
writeControl timeStep;
writeInterval 1;
