FoamFile
{
    format ascii;
    class polyBoundaryMesh;
    location "constant/polyMesh";
    object boundary;
}
1
(
walls
{
    type wall;
    nFaces 6;
    startFace 0;
}
)
