FoamFile
{
    format ascii;
    class volVectorField;
    location "0";
    object U;
}
dimensions [0 1 -1 0 0 0 0];
internalField uniform (1 0 0);
boundaryField
{
    walls
    {
        type fixedValue;
        value uniform (0 0 0);
    }
}
